
No compatibility mode selected!


Circuit: * /home/sranjith102001/desktop/ranji_esim/ranji_decade_counter/ranji_decade_counter.cir

Error on line 24 :
  a3 [net-_u2-pad1_ ] [net-_u2-pad2_ ] [net-_u2-pad3_ net-_u2-pad4_ net-_u2-pad5_ net-_u2-pad6_ ] u2
 MIF-ERROR - unable to find definition of model u2
    Simulation interrupted due to error!

Error: circuit not parsed.

Note: no resource usage information for 'time',
	or no active circuit available

Total CPU time (seconds) = 0.012 

Total DRAM available = 257855.305 MB.
DRAM currently available = 238717.699 MB.
Maximum ngspice program size =   88.285 MB.
Current ngspice program size =   10.168 MB.

Shared ngspice pages =    8.824 MB.
Text (code) pages =    6.285 MB.
Stack = 0 bytes.
Library pages =    1.930 MB.

